<?xml version="1.0" encoding="UTF-8"?>

<!-- generated on 2025-04-09 15:26:46 by Eclipse SUMO netedit Version 1.22.0
-->

<routes xmlns:xsi="http://www.w3.org/2001/XMLSchema-instance" xsi:noNamespaceSchemaLocation="http://sumo.dlr.de/xsd/routes_file.xsd">
    <!-- Vehicles, persons and containers (sorted by depart) -->
    <trip id="t_0" type="DEFAULT_BIKETYPE" depart="0.00" fromJunction="J4" toJunction="J3"/>
    <person id="p_0" depart="0.00">
        <personTrip fromJunction="J1" toJunction="J4"/>
    </person>
    <person id="p_1" depart="5.00">
        <personTrip fromJunction="J3" toJunction="J4"/>
    </person>
    <person id="p_2" depart="5.00">
        <personTrip fromJunction="J0" toJunction="J4"/>
    </person>
    <trip id="t_1" depart="10.00" fromJunction="J1" toJunction="J3"/>
    <person id="p_3" depart="10.00">
        <personTrip fromJunction="J3" toJunction="J1"/>
    </person>
    <person id="p_4" depart="10.00">
        <personTrip fromJunction="J4" toJunction="J3"/>
    </person>
    <person id="p_5" depart="20.00">
        <personTrip fromJunction="J0" toJunction="J1"/>
    </person>
    <trip id="t_2" depart="25.00" fromJunction="J4" toJunction="J3"/>
    <trip id="t_3" depart="25.00" fromJunction="J0" toJunction="J1"/>
    <trip id="t_4" depart="30.00" fromJunction="J3" toJunction="J4"/>
    <trip id="t_5" depart="30.00" fromJunction="J4" toJunction="J3"/>
    <trip id="t_6" depart="35.00" fromJunction="J0" toJunction="J3"/>
    <trip id="t_15" type="DEFAULT_BIKETYPE" depart="40.00" fromJunction="J4" toJunction="J3"/>
    <trip id="t_13" type="DEFAULT_BIKETYPE" depart="50.00" fromJunction="J4" toJunction="J3"/>
    <trip id="t_7" depart="50.00" fromJunction="J1" toJunction="J0"/>
    <trip id="t_8" depart="57.00" fromJunction="J4" toJunction="J1"/>
    <trip id="t_14" type="DEFAULT_BIKETYPE" depart="60.00" fromJunction="J3" toJunction="J4"/>
    <trip id="t_16" type="DEFAULT_BIKETYPE" depart="65.00" fromJunction="J3" toJunction="J4"/>
    <trip id="t_9" depart="65.00" fromJunction="J3" toJunction="J0"/>
    <trip id="t_10" depart="70.00" fromJunction="J0" toJunction="J4"/>
    <trip id="t_11" depart="100.00" fromJunction="J1" toJunction="J3"/>
    <trip id="t_12" depart="100.00" fromJunction="J4" toJunction="J3"/>
</routes>
