<?xml version="1.0" encoding="UTF-8"?>
<net version="1.16" junctionCornerDetail="5" limitTurnSpeed="5.50" xmlns:xsi="http://www.w3.org/2001/XMLSchema-instance" xsi:noNamespaceSchemaLocation="http://sumo.dlr.de/xsd/net_file.xsd">
    <location netOffset="100.00,100.00" convBoundary="0.00,0.00,200.00,200.00" origBoundary="-100.00,-100.00,100.00,100.00" projParameter="!"/>
    <edge id="E0" from="J1" to="J0" priority="1">
        <lane id="E0_0" index="0" speed="13.89" length="100.00" shape="95.20,200.00 95.20,100.00"/>
    </edge>
    <edge id="E1" from="J0" to="J2" priority="1">
        <lane id="E1_0" index="0" speed="13.89" length="100.00" shape="104.80,100.00 104.80,0.00"/>
    </edge>
    <edge id="E2" from="J3" to="J0" priority="1">
        <lane id="E2_0" index="0" speed="13.89" length="100.00" shape="0.00,95.20 100.00,95.20"/>
    </edge>
    <edge id="E3" from="J0" to="J4" priority="1">
        <lane id="E3_0" index="0" speed="13.89" length="100.00" shape="100.00,104.80 200.00,104.80"/>
    </edge>
    <junction id="J0" type="priority" x="100.00" y="100.00" incLanes="E0_0 E2_0" intLanes="" shape="93.60,100.00 106.40,100.00 100.00,106.40 100.00,93.60">
        <request index="0" response="0000" foes="1100" cont="0"/>
        <request index="1" response="0000" foes="1100" cont="0"/>
        <request index="2" response="0011" foes="0011" cont="0"/>
        <request index="3" response="0011" foes="0011" cont="0"/>
    </junction>
    <junction id="J1" type="dead_end" x="95.20" y="200.00" incLanes="" intLanes="" shape="96.80,200.00 93.60,200.00"/>
    <junction id="J2" type="dead_end" x="104.80" y="0.00" incLanes="E1_0" intLanes="" shape="103.20,0.00 106.40,0.00"/>
    <junction id="J3" type="dead_end" x="0.00" y="95.20" incLanes="" intLanes="" shape="0.00,96.80 0.00,93.60"/>
    <junction id="J4" type="dead_end" x="200.00" y="104.80" incLanes="E3_0" intLanes="" shape="200.00,103.20 200.00,106.40"/>
    <connection from="E0" to="E1" fromLane="0" toLane="0" dir="s" state="M"/>
    <connection from="E0" to="E3" fromLane="0" toLane="0" dir="l" state="M"/>
    <connection from="E2" to="E3" fromLane="0" toLane="0" dir="s" state="m"/>
    <connection from="E2" to="E1" fromLane="0" toLane="0" dir="r" state="m"/>
</net>
