<?xml version="1.0" encoding="UTF-8"?>
<routes xmlns:xsi="http://www.w3.org/2001/XMLSchema-instance" xsi:noNamespaceSchemaLocation="http://sumo.dlr.de/xsd/routes_file.xsd">
    <!-- Vehicle types -->
    <vType id="car" length="5.0" minGap="2.5" maxSpeed="13.89" accel="2.0" decel="4.5" sigma="0.5"/>
    <vType id="pedestrian" length="0.35" minGap="0.25" maxSpeed="1.5" accel="1.5" decel="2.0" sigma="0.5" vClass="pedestrian"/>
    
    <!-- Routes -->
    <route id="route_0" edges="E0 E1"/>  <!-- North to South -->
    <route id="route_1" edges="E2 E3"/>  <!-- West to East -->
    
    <!-- Vehicles -->
    <flow id="flow_0" type="car" route="route_0" begin="0" end="3600" probability="0.1"/>
    <flow id="flow_1" type="car" route="route_1" begin="0" end="3600" probability="0.1"/>
    
    <!-- Pedestrians -->
    <personFlow id="ped_0" begin="0" end="3600" probability="0.05">
        <walk from="E0" to="E1"/>
    </personFlow>
    <personFlow id="ped_1" begin="0" end="3600" probability="0.05">
        <walk from="E2" to="E3"/>
    </personFlow>
</routes>
