<?xml version="1.0" encoding="UTF-8"?>

<!-- generated on 2025-04-09 14:41:54 by Eclipse SUMO netedit Version 1.22.0
-->

<routes xmlns:xsi="http://www.w3.org/2001/XMLSchema-instance" xsi:noNamespaceSchemaLocation="http://sumo.dlr.de/xsd/routes_file.xsd">
    <!-- Vehicles, persons and containers (sorted by depart) -->
    <trip id="t_0" depart="0.00" fromJunction="J0" toJunction="J4"/>
    <trip id="t_1" depart="0.00" fromJunction="J4" toJunction="J0"/>
    <trip id="t_3" type="DEFAULT_PEDTYPE" depart="0.00" fromJunction="J0" toJunction="J4"/>
    <trip id="t_2" depart="2.00" fromJunction="J0" toJunction="J4"/>
</routes>
