<?xml version="1.0" encoding="UTF-8"?>

<!-- generated on 2025-05-16 09:15:11 by Eclipse SUMO netedit Version 1.22.0
-->

<routes xmlns:xsi="http://www.w3.org/2001/XMLSchema-instance" xsi:noNamespaceSchemaLocation="http://sumo.dlr.de/xsd/routes_file.xsd">
    <!-- VTypes -->
    <vType id="infra" vClass="drone"/>
    <!-- Vehicles, persons and containers (sorted by depart) -->
    <person id="p_3" depart="0.00">
        <personTrip fromJunction="J0" toJunction="J4"/>
    </person>
    <container id="c_0" type="infra" depart="0.00">
        <stop edge="-E0" endPos="22.29" duration="154.00"/>
    </container>
    <trip id="t_1" depart="20.00" fromJunction="J4" toJunction="J0"/>
    <trip id="t_0" depart="80.00" fromJunction="J0" toJunction="J4"/>
    <trip id="t_2" depart="85.00" fromJunction="J0" toJunction="J4"/>
</routes>
