<?xml version="1.0" encoding="UTF-8"?>

<!-- generated on 2025-04-02 09:44:26 by Eclipse SUMO netedit Version 1.22.0
-->

<routes xmlns:xsi="http://www.w3.org/2001/XMLSchema-instance" xsi:noNamespaceSchemaLocation="http://sumo.dlr.de/xsd/routes_file.xsd">
    <!-- Vehicles, persons and containers (sorted by depart) -->
    <flow id="f_0" begin="0.00" fromJunction="J0" toJunction="J4" end="3600.00" vehsPerHour="300"/>
    <personFlow id="pf_0" begin="0.00" end="3600.00" personsPerHour="300">
        <personTrip fromJunction="J0" toJunction="J4"/>
    </personFlow>
</routes>
